data_VESTA_phase_1
_audit_creation_method         'generated by CrystalMaker X for Windows'
_cell_length_a                   5.142319
_cell_length_b                   5.195148
_cell_length_c                   5.326038
_cell_angle_alpha               90.000000
_cell_angle_beta                99.674530
_cell_angle_gamma               90.000000

_symmetry_space_group_name_H-M     'P 21/c'

loop_
_symmetry_equiv_pos_as_xyz
'+x,+y,+z'
'-x,1/2+y,1/2-z'
'-x,-y,-z'
'+x,1/2-y,1/2+z'

loop_
_atom_site_label
_atom_site_type_symbol
_atom_site_occupancy
_atom_site_fract_x
_atom_site_fract_y
_atom_site_fract_z
 Hf0  Hf 1.0  0.275959  0.542681  0.707891
 O1  O 1.0  0.067849  0.669878  0.347094
 O2  O 1.0  0.448887  0.242603  0.477708

