data_VESTA_phase_1
_audit_creation_method         'generated by CrystalMaker X for Windows'
_cell_length_a                   5.269276
_cell_length_b                   5.040138
_cell_length_c                   5.074451
_cell_angle_alpha               90.000000
_cell_angle_beta                90.000000
_cell_angle_gamma               90.000000

_symmetry_space_group_name_H-M     'P c a 21'

loop_
_symmetry_equiv_pos_as_xyz
'+x,+y,+z'
'-x,-y,1/2+z'
'1/2+x,-y,+z'
'1/2-x,+y,1/2+z'

loop_
_atom_site_label
_atom_site_type_symbol
_atom_site_occupancy
_atom_site_fract_x
_atom_site_fract_y
_atom_site_fract_z
 Hf0  Hf 1.0  0.033795  0.267436  0.242569
 O1  O 1.0  0.132089  0.072143  0.876847
 O2  O 1.0  0.233288  0.540203  0.493584

