data_VESTA_phase_1
_audit_creation_method         'generated by CrystalMaker X for Windows'
_cell_length_a                   5.085683
_cell_length_b                  10.058808
_cell_length_c                   5.248355
_cell_angle_alpha               90.000000
_cell_angle_beta                90.000000
_cell_angle_gamma               90.000000

_symmetry_space_group_name_H-M     'P b c a'

loop_
_symmetry_equiv_pos_as_xyz
'+x,+y,+z'
'1/2-x,-y,1/2+z'
'-x,1/2+y,1/2-z'
'1/2+x,1/2-y,-z'
'-x,-y,-z'
'1/2+x,+y,1/2-z'
'+x,1/2-y,1/2+z'
'1/2-x,1/2+y,+z'

loop_
_atom_site_label
_atom_site_type_symbol
_atom_site_occupancy
_atom_site_fract_x
_atom_site_fract_y
_atom_site_fract_z
 Hf0  Hf 1.0  0.245954  0.615568  0.035723
 O1  O 1.0  0.002405  0.522513  0.738573
 O2  O 1.0  0.124314  0.210949  0.372559

