data_Crystal
_audit_creation_method         'generated by CrystalMaker X for Windows'
_cell_length_a                   5.070000
_cell_length_b                   5.070000
_cell_length_c                   5.070000
_cell_angle_alpha               89.500000
_cell_angle_beta                89.500000
_cell_angle_gamma               89.500000

_symmetry_space_group_name_H-M     'R 3'

loop_
_symmetry_equiv_pos_as_xyz
'+x,+y,+z'
'+z,+x,+y'
'+y,+z,+x'

loop_
_atom_site_label
_atom_site_type_symbol
_atom_site_occupancy
_atom_site_fract_x
_atom_site_fract_y
_atom_site_fract_z
 Hf1  Hf 1.0  1.10373  0.04911  -0.43263
 Hf2  Hf 1.0  0.55493  0.55493  0.55493
 O1  O 1.0  0.28282  0.33928  -0.17366
 O2  O 1.0  0.41458  -0.13763  -0.23072
 O3  O 1.0  -0.08408  -0.08408  -0.08408
 O4  O 1.0  0.32548  0.32548  0.32548

