
#======================================================================
# CRYSTAL DATA
#----------------------------------------------------------------------
data_VESTA_phase_1

_chemical_name_common                  'New structure'
_cell_length_a                         5.045206
_cell_length_b                         5.045206
_cell_length_c                         5.045206
_cell_angle_alpha                      89.983955
_cell_angle_beta                       89.983955
_cell_angle_gamma                      89.983955
_cell_volume                           128.421186
_space_group_name_H-M_alt              'R 3 m'
_space_group_IT_number                 160

loop_
_space_group_symop_operation_xyz
   'x, y, z'
   'z, x, y'
   'y, z, x'
   'y, x, z'
   'x, z, y'
   'z, y, x'

loop_
   _atom_site_label
   _atom_site_occupancy
   _atom_site_fract_x
   _atom_site_fract_y
   _atom_site_fract_z
   _atom_site_adp_type
   _atom_site_U_iso_or_equiv
   _atom_site_type_symbol
   Hf1        1.0     1.084223    -0.415777     0.084223    Uiso  0.050000 Hf
   Hf2        1.0     0.584150     0.584150     0.584150    Uiso  0.050000 Hf
   O1         1.0     0.308700     0.859720    -0.691300    Uiso  0.050000 O
   O2         1.0     0.814870     0.353900    -0.185130    Uiso  0.050000 O
   O3         1.0     0.859980     0.859980     0.859980    Uiso  0.050000 O
   O4         1.0     0.353640     0.353640     0.353640    Uiso  0.050000 O
