data_VESTA_phase_1
_audit_creation_method         'generated by CrystalMaker X for Windows'
_cell_length_a                   3.593328
_cell_length_b                   3.593328
_cell_length_c                   5.224673
_cell_angle_alpha               90.000000
_cell_angle_beta                90.000000
_cell_angle_gamma               90.000000

_symmetry_space_group_name_H-M     'P 42/n m c'

loop_
_symmetry_equiv_pos_as_xyz
'+x,+y,+z'
'-x,-y,+z'
'1/2-y,1/2+x,1/2+z'
'1/2+y,1/2-x,1/2+z'
'1/2-x,1/2+y,1/2-z'
'1/2+x,1/2-y,1/2-z'
'+y,+x,-z'
'-y,-x,-z'
'1/2-x,1/2-y,1/2-z'
'1/2+x,1/2+y,1/2-z'
'+y,-x,-z'
'-y,+x,-z'
'+x,-y,+z'
'-x,+y,+z'
'1/2-y,1/2-x,1/2+z'
'1/2+y,1/2+x,1/2+z'

loop_
_atom_site_label
_atom_site_type_symbol
_atom_site_occupancy
_atom_site_fract_x
_atom_site_fract_y
_atom_site_fract_z
 Hf0  Hf 1.0  0.0  0.0  0.0
 O1  O 1.0  0.0  0.5  0.195308

